Ligand_3


 35 39  0  0  0  0  0  0  0  0999 V2000
   31.5186   25.6912   12.1333 C   0  0  0  0  0  0  0  0  0  0  0  0
   30.8964   25.6406   10.9735 N   0  0  0  0  0  0  0  0  0  0  0  0
   30.5537   24.3291   10.7335 N   0  0  0  0  0  0  0  0  0  0  0  0
   30.9746   23.6161   11.7544 C   0  0  0  0  0  0  0  0  0  0  0  0
   30.8802   22.2491   12.0614 C   0  0  0  0  0  0  0  0  0  0  0  0
   31.4128   21.8066   13.2047 C   0  0  0  0  0  0  0  0  0  0  0  0
   31.6184   24.4248   12.6622 N   0  0  0  0  0  0  0  0  0  0  0  0
   32.2142   24.0570   13.8429 N   0  0  0  0  0  0  0  0  0  0  0  0
   32.1123   22.7754   14.1076 C   0  0  0  0  0  0  0  0  0  0  0  0
   32.7046   22.3594   15.2747 N   0  0  0  0  0  0  0  0  0  0  0  0
   32.9074   21.3648   15.2794 H   0  0  0  0  0  0  0  0  0  0  0  0
   33.6426   23.1489   16.0493 C   0  0  0  0  0  0  0  0  0  0  0  0
   32.9449   23.8785   17.1709 C   0  0  0  0  0  0  0  0  0  0  0  0
   31.9614   24.8391   16.8901 C   0  0  0  0  0  0  0  0  0  0  0  0
   31.3080   25.5110   17.9236 C   0  0  0  0  0  0  0  0  0  0  0  0
   31.6285   25.2305   19.2500 C   0  0  0  0  0  0  0  0  0  0  0  0
   32.5982   24.2745   19.5445 C   0  0  0  0  0  0  0  0  0  0  0  0
   33.2487   23.5963   18.5116 C   0  0  0  0  0  0  0  0  0  0  0  0
   32.0375   26.9070   12.8040 C   0  0  0  0  0  0  0  0  0  0  0  0
   33.5484   26.8402   12.9927 C   0  0  0  0  0  0  0  0  0  0  0  0
   33.1966   27.0904   15.3529 O   0  0  0  0  0  0  0  0  0  0  0  0
   33.9892   27.1290   14.4157 C   0  0  0  0  0  0  0  0  0  0  0  0
   35.3370   27.3398   14.5781 N   0  0  0  0  0  0  0  0  0  0  0  0
   35.9601   27.2685   13.7888 H   0  0  0  0  0  0  0  0  0  0  0  0
   35.9508   27.5856   15.8678 C   0  0  0  0  0  0  0  0  0  0  0  0
   36.0464   26.2852   16.6715 C   0  0  0  0  0  0  0  0  0  0  0  0
   35.2692   26.3578   17.9846 C   0  0  0  0  0  0  0  0  0  0  0  0
   36.3258   26.7885   18.9740 C   0  0  0  0  0  0  0  0  0  0  0  0
   37.4959   26.0053   17.1009 C   0  0  0  0  0  0  0  0  0  0  0  0
   37.5264   26.0416   18.5783 N   0  0  0  0  0  0  0  0  0  0  0  0
   37.6391   24.6950   19.1550 C   0  0  0  0  0  0  0  0  0  0  0  0
   36.6544   24.3653   20.2831 C   0  0  0  0  0  0  0  0  0  0  0  0
   37.3006   23.2174   21.0496 C   0  0  0  0  0  0  0  0  0  0  0  0
   38.7960   23.3016   20.7577 C   0  0  0  0  0  0  0  0  0  0  0  0
   38.9835   24.5302   19.8748 C   0  0  0  0  0  0  0  0  0  0  0  0
 21 22  2  0  0  0
 22 20  1  0  0  0
 22 23  1  0  0  0
 20 19  1  0  0  0
 19  1  1  0  0  0
  1  2  2  0  0  0
  1  7  1  0  0  0
  2  3  1  0  0  0
  3  4  2  0  0  0
  4  5  1  0  0  0
  4  7  1  0  0  0
  5  6  2  0  0  0
  6  9  1  0  0  0
  7  8  1  0  0  0
  8  9  2  0  0  0
  9 10  1  0  0  0
 10 12  1  0  0  0
 10 11  1  0  0  0
 12 13  1  0  0  0
 13 14  1  0  0  0
 13 18  2  0  0  0
 14 15  2  0  0  0
 15 16  1  0  0  0
 16 17  2  0  0  0
 17 18  1  0  0  0
 23 25  1  0  0  0
 23 24  1  0  0  0
 25 26  1  0  0  0
 26 27  1  0  0  0
 26 29  1  0  0  0
 27 28  1  0  0  0
 28 30  1  0  0  0
 29 30  1  0  0  0
 30 31  1  0  0  0
 31 32  1  0  0  0
 31 35  1  0  0  0
 32 33  1  0  0  0
 33 34  1  0  0  0
 34 35  1  0  0  0
M  END
> <minimizedAffinity>
-7.63517

$$$$
