Ligand_2


 23 26  0  0  0  0  0  0  0  0999 V2000
   34.3304   25.9253   17.0313 C   0  0  0  0  0  0  0  0  0  0  0  0
   33.3348   25.5228   17.9045 C   0  0  0  0  0  0  0  0  0  0  0  0
   31.8613   25.3209   17.7664 C   0  0  0  0  0  0  0  0  0  0  0  0
   31.7291   24.0107   18.5440 C   0  0  0  0  0  0  0  0  0  0  0  0
   32.6570   24.1818   19.7559 C   0  0  0  0  0  0  0  0  0  0  0  0
   33.7419   25.0509   19.1518 C   0  0  0  0  0  0  0  0  0  0  0  0
   34.9677   25.1314   19.6526 N   0  0  0  0  0  0  0  0  0  0  0  0
   35.8992   25.6947   18.8789 C   0  0  0  0  0  0  0  0  0  0  0  0
   37.1775   25.8009   19.4043 C   0  0  0  0  0  0  0  0  0  0  0  0
   38.2431   26.2857   18.6468 C   0  0  0  0  0  0  0  0  0  0  0  0
   38.0220   26.7098   17.3437 C   0  0  0  0  0  0  0  0  0  0  0  0
   36.7354   26.6497   16.8054 C   0  0  0  0  0  0  0  0  0  0  0  0
   35.6515   26.1062   17.5425 C   0  0  0  0  0  0  0  0  0  0  0  0
   34.3194   26.8034   14.8160 O   0  0  0  0  0  0  0  0  0  0  0  0
   34.0516   25.8637   15.5517 C   0  0  0  0  0  0  0  0  0  0  0  0
   33.3853   24.7204   15.1472 N   0  0  0  0  0  0  0  0  0  0  0  0
   33.0700   24.1030   15.8839 H   0  0  0  0  0  0  0  0  0  0  0  0
   32.8113   24.4218   13.8371 C   0  0  0  0  0  0  0  0  0  0  0  0
   31.7304   25.3941   13.3528 C   0  0  0  0  0  0  0  0  0  0  0  0
   31.2895   25.0572   11.9242 C   0  0  0  0  0  0  0  0  0  0  0  0
   30.8637   23.5964   11.7790 C   0  0  0  0  0  0  0  0  0  0  0  0
   31.9366   22.6392   12.2850 C   0  0  0  0  0  0  0  0  0  0  0  0
   32.3493   22.9655   13.7227 C   0  0  0  0  0  0  0  0  0  0  0  0
 14 15  2  0  0  0
 15  1  1  0  0  0
 15 16  1  0  0  0
  1  2  1  0  0  0
  1 13  2  0  0  0
  2  3  1  0  0  0
  2  6  2  0  0  0
  3  4  1  0  0  0
  4  5  1  0  0  0
  5  6  1  0  0  0
  6  7  1  0  0  0
  7  8  2  0  0  0
  8  9  1  0  0  0
  8 13  1  0  0  0
  9 10  2  0  0  0
 10 11  1  0  0  0
 11 12  2  0  0  0
 12 13  1  0  0  0
 16 18  1  0  0  0
 16 17  1  0  0  0
 18 19  1  0  0  0
 18 23  1  0  0  0
 19 20  1  0  0  0
 20 21  1  0  0  0
 21 22  1  0  0  0
 22 23  1  0  0  0
M  END
> <minimizedAffinity>
-8.52101

$$$$
