Ligand_4


 32 34  0  0  0  0  0  0  0  0999 V2000
   33.9459   23.6140   16.8169 N   0  0  0  0  0  0  0  0  0  0  0  0
   33.7978   24.0899   18.1189 C   0  0  0  0  0  0  0  0  0  0  0  0
   32.4189   24.8380   18.7399 S   0  0  0  0  0  0  0  0  0  0  0  0
   34.7731   23.8531   19.0575 N   0  0  0  0  0  0  0  0  0  0  0  0
   34.3492   23.7322   19.9723 H   0  0  0  0  0  0  0  0  0  0  0  0
   39.5492   23.3396   20.2058 C   0  0  0  0  0  0  0  0  0  0  0  0
   38.4149   24.2130   19.7388 C   0  0  0  0  0  0  0  0  0  0  0  0
   38.5879   25.5934   19.6234 C   0  0  0  0  0  0  0  0  0  0  0  0
   37.5131   26.4042   19.2606 C   0  0  0  0  0  0  0  0  0  0  0  0
   36.2455   25.8566   19.0441 C   0  0  0  0  0  0  0  0  0  0  0  0
   36.0448   24.4872   19.1643 C   0  0  0  0  0  0  0  0  0  0  0  0
   37.1446   23.6670   19.4892 C   0  0  0  0  0  0  0  0  0  0  0  0
   32.9217   22.7731   16.1414 C   0  0  0  0  0  0  0  0  0  0  0  0
   32.0458   23.4716   15.0613 C   0  0  0  0  0  0  0  0  0  0  0  0
   32.4940   23.1733   13.6189 C   0  0  0  0  0  0  0  0  0  0  0  0
   31.6710   23.9314   12.5680 C   0  0  0  0  0  0  0  0  0  0  0  0
   31.8757   24.9752   15.3071 C   0  0  0  0  0  0  0  0  0  0  0  0
   31.0294   25.6654   14.2430 C   0  0  0  0  0  0  0  0  0  0  0  0
   31.6282   25.4391   12.8552 C   0  0  0  0  0  0  0  0  0  0  0  0
   30.8484   26.1964   11.7923 C   0  0  0  0  0  0  0  0  0  0  0  0
   30.5447   27.4647   12.1577 O   0  0  0  0  0  0  0  0  0  0  0  0
   30.5458   25.7534   10.6954 O   0  0  0  0  0  0  0  0  0  0  0  0
   30.8686   27.7183   13.0420 H   0  0  0  0  0  0  0  0  0  0  0  0
   35.2874   23.5564   16.2092 C   0  0  0  0  0  0  0  0  0  0  0  0
   35.8642   24.8701   15.6956 C   0  0  0  0  0  0  0  0  0  0  0  0
   34.9753   25.8988   15.3387 C   0  0  0  0  0  0  0  0  0  0  0  0
   35.4206   27.2127   15.1552 C   0  0  0  0  0  0  0  0  0  0  0  0
   37.2313   25.1758   15.7476 C   0  0  0  0  0  0  0  0  0  0  0  0
   37.6748   26.4915   15.5623 C   0  0  0  0  0  0  0  0  0  0  0  0
   36.7666   27.5245   15.3294 C   0  0  0  0  0  0  0  0  0  0  0  0
   37.2962   28.7865   15.3134 O   0  0  0  0  0  0  0  0  0  0  0  0
   36.9210   29.6411   16.3918 C   0  0  0  0  0  0  0  0  0  0  0  0
  6  7  1  0  0  0
  7  8  1  0  0  0
  7 12  2  0  0  0
  8  9  2  0  0  0
  9 10  1  0  0  0
 10 11  2  0  0  0
 11  4  1  0  0  0
 11 12  1  0  0  0
  4  2  1  0  0  0
  4  5  1  0  0  0
  2  1  1  0  0  0
  2  3  2  0  0  0
  1 13  1  0  0  0
  1 24  1  0  0  0
 13 14  1  0  0  0
 14 15  1  0  0  0
 14 17  1  0  0  0
 15 16  1  0  0  0
 16 19  1  0  0  0
 17 18  1  0  0  0
 18 19  1  0  0  0
 19 20  1  0  0  0
 20 21  1  0  0  0
 20 22  2  0  0  0
 21 23  1  0  0  0
 24 25  1  0  0  0
 25 26  2  0  0  0
 25 28  1  0  0  0
 26 27  1  0  0  0
 27 30  2  0  0  0
 28 29  2  0  0  0
 29 30  1  0  0  0
 30 31  1  0  0  0
 31 32  1  0  0  0
M  END
> <minimizedAffinity>
-8.56275

$$$$
