Ligand_1


 22 23  0  0  0  0  0  0  0  0999 V2000
   32.3360   23.0164   13.8500 C   0  0  0  0  0  0  0  0  0  0  0  0
   33.4145   22.4946   14.5646 C   0  0  0  0  0  0  0  0  0  0  0  0
   34.3198   23.3445   15.2083 C   0  0  0  0  0  0  0  0  0  0  0  0
   32.2103   24.4110   13.7494 C   0  0  0  0  0  0  0  0  0  0  0  0
   33.1155   25.2688   14.3935 C   0  0  0  0  0  0  0  0  0  0  0  0
   34.1606   24.7338   15.1510 C   0  0  0  0  0  0  0  0  0  0  0  0
   30.1714   20.8638   11.6074 C   0  0  0  0  0  0  0  0  0  0  0  0
   31.3741   21.7144   11.9373 C   0  0  0  0  0  0  0  0  0  0  0  0
   31.3492   22.2200   13.2269 N   0  0  0  0  0  0  0  0  0  0  0  0
   32.2556   21.8776   11.1011 O   0  0  0  0  0  0  0  0  0  0  0  0
   30.5615   21.9573   13.8052 H   0  0  0  0  0  0  0  0  0  0  0  0
   35.1345   25.5772   15.8967 C   0  0  0  0  0  0  0  0  0  0  0  0
   35.8877   24.9248   16.8673 N   0  0  0  0  0  0  0  0  0  0  0  0
   35.2574   26.7498   15.5557 O   0  0  0  0  0  0  0  0  0  0  0  0
   35.8109   23.9173   16.9084 H   0  0  0  0  0  0  0  0  0  0  0  0
   36.9494   25.4984   17.6080 C   0  0  0  0  0  0  0  0  0  0  0  0
   37.5880   26.6885   17.2401 C   0  0  0  0  0  0  0  0  0  0  0  0
   38.6944   27.1561   17.9529 C   0  0  0  0  0  0  0  0  0  0  0  0
   37.3969   24.8201   18.7510 C   0  0  0  0  0  0  0  0  0  0  0  0
   38.5099   25.2824   19.4610 C   0  0  0  0  0  0  0  0  0  0  0  0
   39.1591   26.4415   19.0462 C   0  0  0  0  0  0  0  0  0  0  0  0
   40.2435   26.8652   19.7056 F   0  0  0  0  0  0  0  0  0  0  0  0
  7  8  1  0  0  0
  8  9  1  0  0  0
  8 10  2  0  0  0
  9  1  1  0  0  0
  9 11  1  0  0  0
  1  2  2  0  0  0
  1  4  1  0  0  0
  2  3  1  0  0  0
  3  6  2  0  0  0
  4  5  2  0  0  0
  5  6  1  0  0  0
  6 12  1  0  0  0
 12 13  1  0  0  0
 12 14  2  0  0  0
 13 16  1  0  0  0
 13 15  1  0  0  0
 16 17  2  0  0  0
 16 19  1  0  0  0
 17 18  1  0  0  0
 18 21  2  0  0  0
 19 20  2  0  0  0
 20 21  1  0  0  0
 21 22  1  0  0  0
M  END
> <minimizedAffinity>
-7.69683

$$$$
