Ligand_5


 34 36  0  0  0  0  0  0  0  0999 V2000
   33.5619   25.1182   16.0044 N   0  0  0  0  0  0  0  0  0  0  0  0
   32.1408   25.2255   16.0851 C   0  0  0  0  0  0  0  0  0  0  0  0
   31.3305   26.1079   17.2681 S   0  0  0  0  0  0  0  0  0  0  0  0
   31.5055   24.4147   15.1312 N   0  0  0  0  0  0  0  0  0  0  0  0
   30.8675   23.7678   15.5610 H   0  0  0  0  0  0  0  0  0  0  0  0
   31.3021   24.6990   13.7554 C   0  0  0  0  0  0  0  0  0  0  0  0
   30.9360   26.0172   13.4199 C   0  0  0  0  0  0  0  0  0  0  0  0
   30.6561   26.3867   12.1073 C   0  0  0  0  0  0  0  0  0  0  0  0
   30.7714   25.4569   11.0880 C   0  0  0  0  0  0  0  0  0  0  0  0
   31.2173   24.1715   11.3921 C   0  0  0  0  0  0  0  0  0  0  0  0
   30.1729   27.9953   11.7474 Cl  0  0  0  0  0  0  0  0  0  0  0  0
   31.5105   23.7744   12.7126 C   0  0  0  0  0  0  0  0  0  0  0  0
   31.9274   22.4742   12.7222 O   0  0  0  0  0  0  0  0  0  0  0  0
   31.8826   21.6523   11.5768 C   0  0  0  0  0  0  0  0  0  0  0  0
   34.3227   26.1636   15.2931 C   0  0  0  0  0  0  0  0  0  0  0  0
   38.0169   27.3026   17.2173 C   0  0  0  0  0  0  0  0  0  0  0  0
   36.7922   27.5011   17.8383 C   0  0  0  0  0  0  0  0  0  0  0  0
   35.6120   27.2220   17.1442 C   0  0  0  0  0  0  0  0  0  0  0  0
   35.6260   26.7428   15.8153 C   0  0  0  0  0  0  0  0  0  0  0  0
   36.8600   26.6868   15.1624 C   0  0  0  0  0  0  0  0  0  0  0  0
   38.0496   26.9669   15.8618 C   0  0  0  0  0  0  0  0  0  0  0  0
   39.1886   26.5609   19.1172 C   0  0  0  0  0  0  0  0  0  0  0  0
   39.1221   27.4578   18.0097 O   0  0  0  0  0  0  0  0  0  0  0  0
   34.1920   23.8512   16.4350 C   0  0  0  0  0  0  0  0  0  0  0  0
   35.0993   23.7132   17.6763 C   0  0  0  0  0  0  0  0  0  0  0  0
   34.6451   24.4494   18.9402 C   0  0  0  0  0  0  0  0  0  0  0  0
   35.4756   23.9988   20.1489 C   0  0  0  0  0  0  0  0  0  0  0  0
   36.5850   23.9502   17.4078 C   0  0  0  0  0  0  0  0  0  0  0  0
   37.4333   23.4832   18.5921 C   0  0  0  0  0  0  0  0  0  0  0  0
   36.9969   24.1034   19.9269 C   0  0  0  0  0  0  0  0  0  0  0  0
   37.7404   23.4322   21.0725 C   0  0  0  0  0  0  0  0  0  0  0  0
   36.9465   22.6906   21.8724 O   0  0  0  0  0  0  0  0  0  0  0  0
   38.9458   23.5250   21.2743 O   0  0  0  0  0  0  0  0  0  0  0  0
   36.0098   22.6733   21.6054 H   0  0  0  0  0  0  0  0  0  0  0  0
 22 23  1  0  0  0
 23 16  1  0  0  0
 16 17  1  0  0  0
 16 21  2  0  0  0
 17 18  2  0  0  0
 18 19  1  0  0  0
 19 15  1  0  0  0
 19 20  2  0  0  0
 15  1  1  0  0  0
  1 24  1  0  0  0
  1  2  1  0  0  0
 24 25  1  0  0  0
 25 26  1  0  0  0
 25 28  1  0  0  0
 26 27  1  0  0  0
 27 30  1  0  0  0
 28 29  1  0  0  0
 29 30  1  0  0  0
 30 31  1  0  0  0
 31 32  1  0  0  0
 31 33  2  0  0  0
 32 34  1  0  0  0
  2  4  1  0  0  0
  2  3  2  0  0  0
  4  6  1  0  0  0
  4  5  1  0  0  0
  6  7  2  0  0  0
  6 12  1  0  0  0
  7  8  1  0  0  0
  8  9  2  0  0  0
  8 11  1  0  0  0
  9 10  1  0  0  0
 10 12  2  0  0  0
 12 13  1  0  0  0
 13 14  1  0  0  0
 20 21  1  0  0  0
M  END
> <minimizedAffinity>
-7.23804

$$$$
