IK2


 23 23  0  0  0  0  0  0  0  0999 V2000
   43.4576   18.4698   25.1152 N   0  0  0  0  0  0  0  0  0  0  0  0
   43.3382   19.6955   25.6239 C   0  0  0  0  0  0  0  0  0  0  0  0
   42.6390   19.8625   26.9336 C   0  0  0  0  0  0  0  0  0  0  0  0
   43.8165   20.8109   24.9304 C   0  0  0  0  0  0  0  0  0  0  0  0
   43.6564   22.0488   25.4868 O   0  0  0  0  0  0  0  0  0  0  0  0
   44.4449   20.6311   23.6911 C   0  0  0  0  0  0  0  0  0  0  0  0
   44.5959   19.3273   23.1884 C   0  0  0  0  0  0  0  0  0  0  0  0
   44.0469   18.2934   23.9222 C   0  0  0  0  0  0  0  0  0  0  0  0
   43.2320   22.1378   26.3174 H   0  0  0  0  0  0  0  0  0  0  0  0
   44.9012   21.8204   22.8817 C   0  0  0  0  0  0  0  0  0  0  0  0
   43.7767   22.5447   22.2610 N   0  0  0  0  0  0  0  0  0  0  0  0
   43.7714   23.4966   22.6272 H   0  0  0  0  0  0  0  0  0  0  0  0
   43.8264   22.6186   20.8094 O   0  0  0  0  0  0  0  0  0  0  0  0
   44.9386   23.4324   20.4294 C   0  0  0  0  0  0  0  0  0  0  0  0
   44.7685   24.8892   20.8293 C   0  0  0  0  0  0  0  0  0  0  0  0
   44.1496   25.6086   20.0277 O   0  0  0  0  0  0  0  0  0  0  0  0
   45.2879   25.2834   21.8914 O   0  0  0  0  0  0  0  0  0  0  0  0
   45.1333   19.0761   21.8112 C   0  0  0  0  0  0  0  0  0  0  0  0
   44.8329   17.7618   21.2461 O   0  0  0  0  0  0  0  0  0  0  0  0
   46.0747   16.8067   20.8420 P   0  0  0  0  0  0  0  0  0  0  0  0
   47.2568   17.7076   20.5264 O   0  0  0  0  0  0  0  0  0  0  0  0
   45.6067   16.0193   19.6411 O   0  0  0  0  0  0  0  0  0  0  0  0
   46.2983   15.9298   22.0511 O   0  0  0  0  0  0  0  0  0  0  0  0
  1  2  2  0  0  0
  1  8  1  0  0  0
  2  3  1  0  0  0
  2  4  1  0  0  0
  4  5  1  0  0  0
  4  6  2  0  0  0
  5  9  1  0  0  0
  6 10  1  0  0  0
  6  7  1  0  0  0
 10 11  1  0  0  0
 11 13  1  0  0  0
 11 12  1  0  0  0
 13 14  1  0  0  0
 14 15  1  0  0  0
 15 16  2  0  0  0
 15 17  1  0  0  0
  7  8  2  0  0  0
  7 18  1  0  0  0
 18 19  1  0  0  0
 19 20  1  0  0  0
 20 21  2  0  0  0
 20 22  1  0  0  0
 20 23  1  0  0  0
M  CHG 1  17  -1
M  CHG 1  22  -1
M  CHG 1  23  -1
M  END
> <minimizedAffinity>
-8.71545

$$$$
